<?xml version="1.0" encoding="UTF-8"?>
<!DOCTYPE network SYSTEM "http://www.matsim.org/files/dtd/network_v2.dtd">
<network>

<!-- ====================================================================== -->

	<nodes>
		<node id="10008345127" x="167930.58429178636" y="156049.6566880094" >
		</node>
		<node id="10008345128" x="167910.9201686852" y="156064.79548795056" >
		</node>
		<node id="10020414073" x="161402.0552304159" y="155918.64272512775" >
		</node>
		<node id="10020619396" x="163283.77538540665" y="154879.1059922129" >
		</node>
		<node id="10020619399" x="163464.18388822343" y="154924.6965469001" >
		</node>
		<node id="10020619401" x="163297.46609420422" y="154895.44816237316" >
		</node>
		<node id="10020619402" x="163458.91284310512" y="154897.80809367076" >
		</node>
		<node id="10020619409" x="163263.64869875158" y="154907.54268153943" >
		</node>
		<node id="10020619413" x="163472.38486547355" y="154889.1440663142" >
		</node>
		<node id="10020670718" x="163485.28537907355" y="154896.66359209083" >
		</node>
		<node id="10020670719" x="161649.07655186055" y="155683.23159841355" >
		</node>
		<node id="10020828911" x="166250.47343115762" y="155744.11351476982" >
		</node>
		<node id="10020828914" x="165776.76430121774" y="155217.66687308624" >
		</node>
		<node id="10023386535" x="167346.13855220895" y="156589.57962682378" >
		</node>
		<node id="10023386536" x="167364.20415599406" y="156614.53458996024" >
		</node>
		<node id="10023386540" x="167343.063128993" y="156609.8258122541" >
		</node>
		<node id="10023386542" x="167367.7673920764" y="156596.2700680159" >
		</node>
		<node id="10024159863" x="168304.38095348506" y="156592.9796043085" >
		</node>
		<node id="10025363277" x="168798.010996463" y="155331.90506041888" >
		</node>
		<node id="10025363281" x="168821.606027463" y="155625.42344023287" >
		</node>
		<node id="10025363287" x="168676.21124899323" y="155127.83745319676" >
		</node>
		<node id="10025363296" x="168834.07278308412" y="155546.78997379728" >
		</node>
		<node id="10025363297" x="168824.05689225387" y="155572.42755240016" >
		</node>
		<node id="10025363299" x="168656.9918426621" y="155139.50442446582" >
		</node>
		<node id="10025363300" x="168793.18390902207" y="155291.3972627679" >
		</node>
		<node id="10025363302" x="168697.4143049074" y="155138.28052510507" >
		</node>
		<node id="10025363304" x="168786.72725870926" y="155313.2211174369" >
		</node>
		<node id="10025363305" x="168803.95787350446" y="155310.42422251496" >
		</node>
		<node id="1006094148" x="166224.3853000656" y="158789.4563903883" >
		</node>
		<node id="1006094248" x="167145.29121393373" y="160262.8793242406" >
		</node>
		<node id="1006094332" x="167140.54717854687" y="160332.29889278486" >
		</node>
		<node id="1006094489" x="167103.95197335508" y="159413.71611442417" >
		</node>
		<node id="1018261338" x="169760.301411713" y="153525.48568492662" >
		</node>
		<node id="1018659828" x="169636.2462209078" y="161057.04748198763" >
		</node>
		<node id="1019231924" x="169125.06130125743" y="153127.86699272785" >
		</node>
		<node id="1019231932" x="168970.05214043974" y="152952.92771596275" >
		</node>
		<node id="1019231952" x="168736.7508666583" y="152987.97231143992" >
		</node>
		<node id="1019231985" x="168615.73599943845" y="152835.16808882076" >
		</node>
		<node id="1019260730" x="169694.69732975675" y="152912.77808491234" >
		</node>
		<node id="1019261155" x="169737.44645265938" y="151691.71382483747" >
		</node>
		<node id="10223632477" x="163694.65662197012" y="154458.4001787724" >
		</node>
		<node id="1028117033" x="168697.28834660474" y="155671.49715163" >
		</node>
		<node id="1028117051" x="168839.6445347689" y="156109.85045621824" >
		</node>
		<node id="1028117075" x="168956.3510487735" y="155670.92786765844" >
		</node>
		<node id="1028117077" x="168641.9924603965" y="155604.21240483504" >
		</node>
		<node id="1028117104" x="168717.93129436366" y="155464.7914709393" >
		</node>
		<node id="1028117173" x="168863.58136283033" y="155603.8610666059" >
		</node>
		<node id="1028117179" x="168842.73521477883" y="156167.4271045057" >
		</node>
		<node id="1028117181" x="168638.81870383676" y="155285.76141709462" >
		</node>
		<node id="1028117190" x="168747.0116903349" y="155572.8405344803" >
		</node>
		<node id="1028117213" x="168848.3791029641" y="155608.5227400707" >
		</node>
		<node id="1028117226" x="168929.41026072451" y="155416.01839175634" >
		</node>
		<node id="1028117236" x="168939.91791677772" y="155568.863467169" >
		</node>
		<node id="1028117238" x="169066.79545463558" y="155620.11547661107" >
		</node>
		<node id="1028117240" x="168759.8296829765" y="155939.5256609181" >
		</node>
		<node id="1028117252" x="168557.61621579435" y="155652.44532319065" >
		</node>
		<node id="1028117258" x="168727.77081903446" y="155843.41269020084" >
		</node>
		<node id="1028117268" x="169051.45764202857" y="155516.50852054358" >
		</node>
		<node id="1028117314" x="168964.9346116416" y="155265.10874217842" >
		</node>
		<node id="1029549272" x="167833.35128630674" y="154265.2542432621" >
		</node>
		<node id="1029549281" x="167739.51272885816" y="154918.4318791479" >
		</node>
		<node id="1029549286" x="167720.56360588333" y="154260.54385134485" >
		</node>
		<node id="1029549298" x="167506.06827671194" y="154537.33623664267" >
		</node>
		<node id="1029549300" x="167655.4694980116" y="154268.62205179408" >
		</node>
		<node id="1029549304" x="167863.87668512744" y="155045.59897440206" >
		</node>
		<node id="1029549319" x="167727.8965165267" y="154214.78347208072" >
		</node>
		<node id="1029549322" x="168199.4930579606" y="154630.38336323388" >
		</node>
		<node id="1029549323" x="167709.38055214478" y="154320.90777736902" >
		</node>
		<node id="1029549333" x="168068.1673634298" y="155385.0520030884" >
		</node>
		<node id="1029549341" x="168120.05316786954" y="154414.6854934236" >
		</node>
		<node id="1029549350" x="168312.7415749139" y="155481.72254045773" >
		</node>
		<node id="1029549352" x="167485.9070071008" y="154604.7786844941" >
		</node>
		<node id="1029549369" x="167947.8019691775" y="154837.4052049797" >
		</node>
		<node id="1029549370" x="167650.65982269123" y="154720.4292232059" >
		</node>
		<node id="1029549379" x="167696.8344235461" y="154846.8840720458" >
		</node>
		<node id="1029549381" x="167779.76655115647" y="155023.35413953103" >
		</node>
		<node id="1029549386" x="167665.50538521746" y="154363.70811485872" >
		</node>
		<node id="1029549399" x="167492.94634582175" y="155526.7708133133" >
		</node>
		<node id="1029549402" x="167811.4071021721" y="154869.28681544028" >
		</node>
		<node id="1029549406" x="167474.90145770393" y="154930.19995901827" >
		</node>
		<node id="1029549407" x="167795.8787370829" y="154944.54164365586" >
		</node>
		<node id="1029549413" x="168291.9408313492" y="155469.5248681605" >
		</node>
		<node id="1029549415" x="167528.80059631876" y="155123.64408448618" >
		</node>
		<node id="1029549440" x="168004.07585922437" y="154422.24966098648" >
		</node>
		<node id="1029549444" x="167592.65375039002" y="154389.1583998045" >
		</node>
		<node id="1029549448" x="167779.52014604036" y="154162.62157463934" >
		</node>
		<node id="1029549455" x="167924.26347035033" y="154891.34134870674" >
		</node>
		<node id="1029549459" x="167621.0110219197" y="154850.56589415483" >
		</node>
		<node id="1029549461" x="167881.58317238666" y="154622.65727669187" >
		</node>
		<node id="1029549470" x="168073.6054795868" y="154731.02826544177" >
		</node>
		<node id="1029549477" x="168099.42452121453" y="155323.2119234912" >
		</node>
		<node id="1029549478" x="168044.87110310196" y="154709.77173013706" >
		</node>
		<node id="1029549479" x="167856.15548232282" y="154530.46596038155" >
		</node>
		<node id="1029549488" x="167739.84092752764" y="154098.78135380428" >
		</node>
		<node id="1029549506" x="167940.64265413638" y="154331.68486138247" >
		</node>
		<node id="1029549508" x="167718.8200941001" y="154285.13248806354" >
		</node>
		<node id="1029549510" x="167693.55835729028" y="154194.7557682218" >
		</node>
		<node id="1029549528" x="167696.128899361" y="154721.3392615756" >
		</node>
		<node id="1029549533" x="167585.7751763529" y="154867.54448675644" >
		</node>
		<node id="1029549539" x="167629.8538656561" y="154964.12451023702" >
		</node>
		<node id="1029549549" x="167453.6957125404" y="154985.21388001833" >
		</node>
		<node id="1029549550" x="167883.98522307829" y="155168.06219337974" >
		</node>
		<node id="1029549559" x="167870.60457893714" y="154587.69125527237" >
		</node>
		<node id="1029550172" x="168272.687309735" y="155695.75921442267" >
		</node>
		<node id="1029561585" x="169561.5514595105" y="154335.18024331797" >
		</node>
		<node id="1029561587" x="167670.75343942764" y="155622.73245322052" >
		</node>
		<node id="1029561590" x="167763.4113070281" y="155837.27870485093" >
		</node>
		<node id="1029561645" x="167557.0629453068" y="155609.479376656" >
		</node>
		<node id="1029561652" x="167650.14081339212" y="155874.71596783586" >
		</node>
		<node id="1029561663" x="167717.7246731324" y="155924.28948350716" >
		</node>
		<node id="1029561695" x="168301.34369752347" y="155176.29127661418" >
		</node>
		<node id="1029561697" x="167637.0015220848" y="156066.111517217" >
		</node>
		<node id="1029561701" x="169545.9284908942" y="154311.3615670437" >
		</node>
		<node id="1029561724" x="167569.62662144654" y="155590.96715551056" >
		</node>
		<node id="1029561738" x="167635.1536632105" y="155728.17668986507" >
		</node>
		<node id="1029561739" x="167715.89253500107" y="155923.07078715507" >
		</node>
		<node id="1029561749" x="167724.39136801733" y="155803.53032853175" >
		</node>
		<node id="1029561757" x="167570.78089854144" y="155766.65955302026" >
		</node>
		<node id="1029561767" x="167680.92478887746" y="155839.8023701962" >
		</node>
		<node id="1029561772" x="169784.59485521473" y="154545.51216696668" >
		</node>
		<node id="1029561777" x="167674.87597710983" y="155744.6070828596" >
		</node>
		<node id="1029561799" x="167584.97168957177" y="155665.336500369" >
		</node>
		<node id="1029567384" x="163943.0826522226" y="154285.23804353643" >
		</node>
		<node id="1029567464" x="163477.73073561967" y="154377.4564968599" >
		</node>
		<node id="1029567474" x="163881.92109340764" y="154126.4069109643" >
		</node>
		<node id="1029567505" x="163850.12976174935" y="154256.7033832632" >
		</node>
		<node id="1029567517" x="163895.88902004875" y="154280.36256053764" >
		</node>
		<node id="1029567603" x="163867.1589366082" y="154247.56035896298" >
		</node>
		<node id="1036387706" x="167445.03157969523" y="159984.08421337884" >
		</node>
		<node id="10565155954" x="166681.77537795054" y="156147.5619615512" >
		</node>
		<node id="10565155955" x="166663.5096297154" y="156126.26846776158" >
		</node>
		<node id="10565155957" x="166632.65761696178" y="156089.77330885455" >
		</node>
		<node id="10565155965" x="166680.24223967525" y="156114.55288816057" >
		</node>
		<node id="10565155983" x="166611.03137056116" y="156054.64248757437" >
		</node>
		<node id="10565155985" x="166597.86263941557" y="156042.6982523445" >
		</node>
		<node id="10565155996" x="166649.4713489436" y="156110.261158525" >
		</node>
		<node id="10565156000" x="166617.5026836909" y="156069.51326117292" >
		</node>
		<node id="1070880331" x="166388.44535561677" y="159898.2356430674" >
		</node>
		<node id="1072875552" x="169646.15899597245" y="158304.2622997919" >
		</node>
		<node id="1072875811" x="169659.6528322162" y="158320.2645898927" >
		</node>
		<node id="10770328380" x="164424.7613857552" y="153658.71270070318" >
		</node>
		<node id="10770343817" x="163197.55630468702" y="153887.4216361707" >
		</node>
		<node id="10770343820" x="163193.77966960357" y="153877.723375028" >
		</node>
		<node id="10770517424" x="163619.13365497466" y="154071.96599116642" >
		</node>
		<node id="10770517433" x="163666.39730986615" y="154064.3806285225" >
		</node>
		<node id="1079169476" x="164152.58671944166" y="160293.8036510693" >
		</node>
		<node id="1079170020" x="164166.77726716147" y="160278.33549685962" >
		</node>
		<node id="1083220139" x="167750.9899793071" y="156429.67701476347" >
		</node>
		<node id="1083220140" x="167768.97473987145" y="156376.18827030156" >
		</node>
		<node id="1083220151" x="167827.59888091387" y="156273.84890776873" >
		</node>
		<node id="1083222436" x="167916.10681026764" y="156556.61729522515" >
		</node>
		<node id="1083287160" x="167583.95479781347" y="156394.11728810985" >
		</node>
		<node id="1083287168" x="167456.58175260766" y="156264.1876424048" >
		</node>
		<node id="1083287192" x="167652.24315847582" y="156473.7599542709" >
		</node>
		<node id="1083320777" x="168095.118465927" y="156724.7688818071" >
		</node>
		<node id="1083320780" x="168064.0948599574" y="156390.22531851009" >
		</node>
		<node id="1083321701" x="168064.80159853952" y="156629.24429303128" >
		</node>
		<node id="1083321702" x="168070.1307224007" y="156627.89448088594" >
		</node>
		<node id="1084361752" x="163916.70318318802" y="160394.76368224435" >
		</node>
		<node id="1084361907" x="163773.21329920925" y="161099.2459652964" >
		</node>
		<node id="1084362006" x="163746.94592796615" y="161050.83244150225" >
		</node>
		<node id="1084362009" x="163776.11156311113" y="160530.27971087676" >
		</node>
		<node id="1084362076" x="163783.5108237157" y="161100.60800660402" >
		</node>
		<node id="1084362135" x="163713.7811565487" y="161001.06606976315" >
		</node>
		<node id="1084362150" x="163627.0074795192" y="160558.79928100388" >
		</node>
		<node id="1084362286" x="167237.78307715515" y="158718.23791987915" >
		</node>
		<node id="1084362310" x="163729.3251947685" y="160992.8863960076" >
		</node>
		<node id="1084362361" x="167251.47274968325" y="158638.30281719752" >
		</node>
		<node id="1084362448" x="162228.65089139028" y="160594.3584120758" >
		</node>
		<node id="1084362494" x="163841.24442039587" y="161000.25669880863" >
		</node>
		<node id="1084362684" x="163739.75849006805" y="161033.89413279574" >
		</node>
		<node id="1084362717" x="162917.60604923623" y="160854.3805342028" >
		</node>
		<node id="1084362780" x="163862.55467033017" y="161052.62874371838" >
		</node>
		<node id="10948504609" x="163709.7280168481" y="152236.9978649253" >
		</node>
		<node id="10948504611" x="163787.00602665116" y="152120.97006221674" >
		</node>
		<node id="10948504643" x="164176.2059324734" y="151263.62176652625" >
		</node>
		<node id="10948504658" x="163763.31436081853" y="152166.95954446308" >
		</node>
		<node id="10948504659" x="163726.3841445225" y="152221.59081435762" >
		</node>
		<node id="10948504664" x="163390.42966038486" y="152718.33621080313" >
		</node>
		<node id="10959307152" x="169544.6071279939" y="157987.69812504668" >
		</node>
		<node id="10959307154" x="169492.04662977235" y="158061.63107614685" >
		</node>
		<node id="10959307171" x="169523.74790705583" y="157883.0340499906" >
		</node>
		<node id="10959386803" x="169603.94393682937" y="157876.81553290877" >
		</node>
		<node id="1102492899" x="163111.7318833439" y="158253.10388134886" >
		</node>
		<node id="1102492907" x="163094.6207426425" y="158241.5144600561" >
		</node>
		<node id="1102492911" x="163073.26036219278" y="158201.48206443992" >
		</node>
		<node id="1102492915" x="162838.37649871767" y="158635.66145446338" >
		</node>
		<node id="1102899932" x="161810.43990098286" y="161686.28001283295" >
		</node>
		<node id="1102899944" x="163945.90924194772" y="161789.67351801228" >
		</node>
		<node id="1102900089" x="162585.38388075383" y="157573.50332373194" >
		</node>
		<node id="1102900118" x="161930.09447561065" y="161378.2767233979" >
		</node>
		<node id="1102900348" x="162590.47526643367" y="157561.41293910705" >
		</node>
		<node id="1103619376" x="166762.88342780113" y="155573.15733982902" >
		</node>
		<node id="1105173185" x="165699.71724783827" y="154704.2643235894" >
		</node>
		<node id="1106478197" x="165547.50019732627" y="158091.68243841827" >
		</node>
		<node id="1106478248" x="164931.32403533056" y="158713.4744019555" >
		</node>
		<node id="1106478602" x="165627.57659737844" y="158061.30861515924" >
		</node>
		<node id="1106490961" x="165320.23847077493" y="157501.105671498" >
		</node>
		<node id="1106490964" x="165206.94314181036" y="157645.5730104018" >
		</node>
		<node id="1106491045" x="165132.8441510714" y="157755.95055308845" >
		</node>
		<node id="1106491080" x="165199.45274677846" y="157640.54551627208" >
		</node>
		<node id="1106491111" x="165117.0277548651" y="157744.380532383" >
		</node>
		<node id="1106491130" x="165199.7121207575" y="157626.61929576285" >
		</node>
		<node id="1106491131" x="165680.65854665745" y="158461.1346424194" >
		</node>
		<node id="1106491164" x="165755.27351098545" y="158456.46461084764" >
		</node>
		<node id="1106491193" x="165763.58251892976" y="158292.52480788156" >
		</node>
		<node id="1106491195" x="165218.78922697276" y="157641.05786970071" >
		</node>
		<node id="1106491206" x="165303.67296469072" y="157487.2414006032" >
		</node>
		<node id="1106491276" x="165310.30085181235" y="157504.74739506282" >
		</node>
		<node id="1106491465" x="165211.9910945048" y="157645.60995025747" >
		</node>
		<node id="11079027259" x="167407.2905741503" y="155936.7734404076" >
		</node>
		<node id="1108940259" x="165345.3853408229" y="157920.24579192046" >
		</node>
		<node id="1110386311" x="166440.46466576238" y="158522.87096183188" >
		</node>
		<node id="11151502741" x="166933.32695120422" y="154231.81779203657" >
		</node>
		<node id="11153252292" x="168374.48754492137" y="154971.02543123253" >
		</node>
		<node id="11167046436" x="166380.31826792372" y="156755.4122722121" >
		</node>
		<node id="11167046437" x="166391.3157156253" y="156765.78072359972" >
		</node>
		<node id="11167046438" x="166363.1502108302" y="156733.40018882323" >
		</node>
		<node id="11167046439" x="166358.14494532958" y="156728.4678191226" >
		</node>
		<node id="11167046440" x="166344.55174289897" y="156714.87655358668" >
		</node>
		<node id="11167046441" x="166212.17588225505" y="156617.36500491668" >
		</node>
		<node id="11167046442" x="166219.74674657767" y="156619.37964295316" >
		</node>
		<node id="11167046443" x="166225.32776889318" y="156620.89867004007" >
		</node>
		<node id="11167046444" x="166234.79731417642" y="156623.19731727522" >
		</node>
		<node id="11167046445" x="166260.81910270228" y="156630.08593699895" >
		</node>
		<node id="11167046446" x="166290.66729248528" y="156655.39643975813" >
		</node>
		<node id="11167046447" x="166304.25444060023" y="156671.02319319453" >
		</node>
		<node id="11167050812" x="166373.4423325636" y="156743.53279517405" >
		</node>
		<node id="11171797285" x="167111.70884967188" y="155941.14839165378" >
		</node>
		<node id="11171797286" x="167107.72993348428" y="155954.92882764246" >
		</node>
		<node id="11174652341" x="167446.84336282383" y="153413.55466529075" >
		</node>
		<node id="11174652343" x="167421.94323494486" y="154351.22249597497" >
		</node>
		<node id="11174652344" x="167436.48461349393" y="153909.6595190456" >
		</node>
		<node id="11174652347" x="167434.7642107935" y="153987.04143076017" >
		</node>
		<node id="11174652348" x="167423.7980675561" y="154235.51976723876" >
		</node>
		<node id="11174652349" x="167430.15942962194" y="154117.99666761886" >
		</node>
		<node id="11174652350" x="167443.9467456335" y="153407.0710153086" >
		</node>
		<node id="11176810763" x="167479.729917301" y="155394.04259397276" >
		</node>
		<node id="11176810764" x="167477.7990556333" y="155356.77160217427" >
		</node>
		<node id="11176810765" x="167467.51047510564" y="155195.23164124694" >
		</node>
		<node id="11176810766" x="167464.6031497424" y="155156.2999726031" >
		</node>
		<node id="11176810767" x="167458.50586843098" y="155055.1426045345" >
		</node>
		<node id="11176810768" x="167455.55516167433" y="155010.1150017213" >
		</node>
		<node id="11176810769" x="167453.91575016736" y="154989.1301685227" >
		</node>
		<node id="11176810770" x="167451.8591196462" y="154955.5741263656" >
		</node>
		<node id="11176810771" x="167449.5484713893" y="154917.69010827318" >
		</node>
		<node id="11176810772" x="167450.11092042137" y="154926.95805354137" >
		</node>
		<node id="11176810773" x="167443.59237879777" y="154824.8538311515" >
		</node>
		<node id="11176810774" x="167441.21102423227" y="154784.8338358188" >
		</node>
		<node id="11176810778" x="167431.39089618778" y="154638.88004903775" >
		</node>
		<node id="11176810779" x="167427.98571740364" y="154596.53180581424" >
		</node>
		<node id="11176810782" x="167428.259934619" y="154601.16018879972" >
		</node>
		<node id="11176810783" x="167426.91561824433" y="154578.4633126231" >
		</node>
		<node id="11176810785" x="167422.7611114021" y="154462.00634600502" >
		</node>
		<node id="11176810786" x="167424.75489451847" y="154544.23954101745" >
		</node>
		<node id="11176810787" x="167421.62673707068" y="154378.37443965953" >
		</node>
		<node id="11176810790" x="167484.95287201088" y="155496.60985451099" >
		</node>
		<node id="11177104834" x="167542.19495605602" y="155714.88263669237" >
		</node>
		<node id="11177104836" x="167593.07628319712" y="155809.18275125884" >
		</node>
		<node id="11180925715" x="167054.5471752932" y="155678.35215410683" >
		</node>
		<node id="11183519086" x="166508.56083137146" y="153755.02167489193" >
		</node>
		<node id="11252494806" x="162375.93586648442" y="154573.65609977487" >
		</node>
		<node id="11252494811" x="162176.53642898428" y="154922.7942450773" >
		</node>
		<node id="11252494820" x="161806.1884656388" y="155405.59167142585" >
		</node>
		<node id="11252494831" x="161126.44596701502" y="156300.3927985523" >
		</node>
		<node id="11267407800" x="163993.18470232625" y="151732.25698299706" >
		</node>
		<node id="1128286136" x="164257.91175560403" y="161426.47644514497" >
		</node>
		<node id="1128286168" x="168201.37602191704" y="160628.33303197846" >
		</node>
		<node id="11295234649" x="165598.76839152523" y="155003.15685700253" >
		</node>
		<node id="1132456170" x="169456.60068099695" y="153129.6007070439" >
		</node>
		<node id="1132456177" x="169527.19268432484" y="153065.41286008153" >
		</node>
		<node id="11332819468" x="166364.54421373594" y="155753.26816829015" >
		</node>
		<node id="11332829269" x="166361.28043668205" y="155755.7719207136" >
		</node>
		<node id="11351462151" x="161429.58927331865" y="154054.20416709874" >
		</node>
		<node id="11360091516" x="165322.75280116207" y="156412.18530650157" >
		</node>
		<node id="113620228" x="167926.32525933045" y="153776.21755620092" >
		</node>
		<node id="11498006681" x="160809.83449158678" y="157841.6678263247" >
		</node>
		<node id="1150846541" x="165128.96964177475" y="161113.54373058584" >
		</node>
		<node id="1150846549" x="164415.70898411164" y="160745.88466480095" >
		</node>
		<node id="11540675857" x="161806.62929470273" y="161646.21435602847" >
		</node>
		<node id="11540675858" x="161690.33630190755" y="161514.64640789572" >
		</node>
		<node id="11540675861" x="161696.70272813473" y="161522.82559079304" >
		</node>
		<node id="11612962712" x="164818.0628421986" y="156304.47606492508" >
		</node>
		<node id="11618651509" x="164106.42597655137" y="155277.5216538394" >
		</node>
		<node id="11621953405" x="166856.82268265786" y="155073.23596379347" >
		</node>
		<node id="11622091152" x="164317.8430783314" y="152689.0464735739" >
		</node>
		<node id="11622338185" x="164190.37925045" y="152737.89899216592" >
		</node>
		<node id="11622880638" x="165278.3965610975" y="152294.73852707446" >
		</node>
		<node id="1163068405" x="161309.4433170797" y="157913.98535800353" >
		</node>
		<node id="1163783173" x="163393.3919317966" y="152726.11923398357" >
		</node>
		<node id="11640519528" x="165132.21526454893" y="152670.4490679605" >
		</node>
		<node id="11770964425" x="164262.52922325293" y="156658.73469364922" >
		</node>
		<node id="11771521434" x="163858.15507175087" y="157878.5576927429" >
		</node>
		<node id="11771521440" x="163843.41095469013" y="157946.30691867694" >
		</node>
		<node id="11843210862" x="161885.32679173345" y="155330.19666708726" >
		</node>
		<node id="11843210865" x="162255.24613717166" y="154830.718322807" >
		</node>
		<node id="11843210867" x="162388.16030999264" y="154584.25257829763" >
		</node>
		<node id="11843210868" x="161362.66748528118" y="155986.82314502727" >
		</node>
		<node id="11843246369" x="161378.89258709716" y="155998.5495087495" >
		</node>
		<node id="11843246370" x="161488.65942678353" y="155820.73245921545" >
		</node>
		<node id="11843246371" x="161505.37620474905" y="155833.79513761308" >
		</node>
		<node id="11843246372" x="161143.80715284473" y="156299.09497888573" >
		</node>
		<node id="11878810437" x="162407.69307612855" y="153141.10192824993" >
		</node>
		<node id="12007533502" x="162500.51691160433" y="155768.70566375274" >
		</node>
		<node id="1200847220" x="162847.45285738306" y="154863.69886387046" >
		</node>
		<node id="1200847250" x="164455.0583191528" y="153674.15817707684" >
		</node>
		<node id="12046383915" x="162105.61308791797" y="153932.78797205538" >
		</node>
		<node id="12057645597" x="164015.92727169732" y="151699.02483575512" >
		</node>
		<node id="12057645610" x="163661.04291929698" y="152330.57605723944" >
		</node>
		<node id="12069564147" x="163583.29019366574" y="152465.64820659906" >
		</node>
		<node id="12088542935" x="164997.27890671886" y="156926.04878863413" >
		</node>
		<node id="12088542936" x="165156.7446628409" y="156771.66605090164" >
		</node>
		<node id="12088567377" x="165980.399959797" y="156536.37115640286" >
		</node>
		<node id="122174404" x="166822.7253686993" y="156289.76360792015" >
		</node>
		<node id="122174410" x="166767.78001572491" y="156149.60574046057" >
		</node>
		<node id="122174416" x="166683.7094620694" y="155946.4506712947" >
		</node>
		<node id="122174469" x="166749.30496017082" y="156315.0124293724" >
		</node>
		<node id="122174475" x="166858.95558393237" y="156457.83798971493" >
		</node>
		<node id="122174490" x="165618.68070679816" y="158035.56380618084" >
		</node>
		<node id="122174499" x="165592.0415788099" y="158057.8208331531" >
		</node>
		<node id="122174509" x="165585.46722362057" y="158013.4506541593" >
		</node>
		<node id="122174529" x="166111.32099316694" y="158324.08680793364" >
		</node>
		<node id="122174543" x="166147.9387779794" y="158337.43715544045" >
		</node>
		<node id="122174576" x="167203.56183172367" y="158664.68633061834" >
		</node>
		<node id="122174585" x="167240.44731163085" y="158668.08939865232" >
		</node>
		<node id="122174603" x="167279.50568547685" y="158695.33825821057" >
		</node>
		<node id="122174613" x="167280.14844805154" y="158716.5646348782" >
		</node>
		<node id="122174712" x="167438.1497152068" y="160195.9039726425" >
		</node>
		<node id="122174825" x="168475.2740059689" y="162189.67671022285" >
		</node>
		<node id="122279241" x="165571.85942387363" y="158033.64426750876" >
		</node>
		<node id="122312674" x="166780.8871764769" y="156195.93374302052" >
		</node>
		<node id="122448818" x="166725.15787217114" y="156167.72331346106" >
		</node>
		<node id="122456494" x="166758.48490757894" y="156152.17889933847" >
		</node>
		<node id="122457144" x="166615.7658607601" y="155929.337345046" >
		</node>
		<node id="122457152" x="166586.6331841182" y="156022.73997684382" >
		</node>
		<node id="1277102768" x="168387.68697511213" y="156199.44577031117" >
		</node>
		<node id="1277102780" x="168337.98981701932" y="156181.4510015715" >
		</node>
		<node id="1277142857" x="165815.1134387198" y="154792.14458533376" >
		</node>
		<node id="1277142860" x="165835.80653949082" y="154807.6691795094" >
		</node>
		<node id="1277142875" x="165842.0308960407" y="154781.71415056754" >
		</node>
		<node id="1277142879" x="165846.54314672246" y="154793.9305414874" >
		</node>
		<node id="1305816761" x="165661.64546942356" y="157946.24597355071" >
		</node>
		<node id="1312648952" x="166256.0467057279" y="155194.07317458838" >
		</node>
		<node id="1312648953" x="166167.53724236347" y="155110.63777272776" >
		</node>
		<node id="1312648954" x="165711.84216664615" y="154684.53389927372" >
		</node>
		<node id="1312922958" x="161903.80993473012" y="152673.3816446392" >
		</node>
		<node id="1314483509" x="166650.79849745496" y="153512.25287919212" >
		</node>
		<node id="1332301163" x="166428.7032591033" y="160785.67871970125" >
		</node>
		<node id="1340970889" x="167932.70374330462" y="160695.9493816197" >
		</node>
		<node id="1340970921" x="167583.48164864094" y="160890.85415850673" >
		</node>
		<node id="1340971104" x="166645.2882358584" y="161310.17652525753" >
		</node>
		<node id="1340971118" x="166581.12756404994" y="161363.44496093504" >
		</node>
		<node id="1343780462" x="166945.69258366004" y="161004.53491977043" >
		</node>
		<node id="1343780463" x="167056.63879399459" y="161031.97150216997" >
		</node>
		<node id="1343795017" x="163578.32340982754" y="157592.77606520522" >
		</node>
		<node id="1343795029" x="163290.60696336196" y="157874.14609614387" >
		</node>
		<node id="1343795030" x="163475.57189418975" y="157678.8638253035" >
		</node>
		<node id="1345290341" x="166902.75188398454" y="161082.91925124265" >
		</node>
		<node id="1345290342" x="166874.668927531" y="161199.1842359323" >
		</node>
		<node id="1346186481" x="165859.14788786593" y="157575.0512003107" >
		</node>
		<node id="1346186485" x="166257.67125099793" y="157789.62992962915" >
		</node>
		<node id="1346186596" x="166519.72110793783" y="158389.70191237237" >
		</node>
		<node id="1346186601" x="165892.7270061048" y="157595.8768130904" >
		</node>
		<node id="1346353478" x="167400.02643949023" y="156332.6995161362" >
		</node>